main_part/data/case300_ieee_modified.m
%   Power flow data for IEEE 300-bus test case.
%   This data was obatined by modifying IEEE 300-bus test case from
%   IEEE PES Power Grid Library - Optimal Power Flow - v20.07
%   (https://github.com/power-grid-lib/pglib-opf)
function mpc =case300_ieee_modified
mpc.version = '2';
mpc.baseMVA = 100.0;

%% bus data
%	bus_i	type	Pd	Qd	Gs	Bs	area	Vm	Va	baseKV	zone	Vmax	Vmin
mpc.bus = [
	1	 1	 90.0	 49.0	 0.0	 0.0	 1	    1.00000	    0.00000	 115.0	 1	    1.06000	    0.94000;
	2	 1	 56.0	 15.0	 0.0	 0.0	 1	    1.00000	    0.00000	 115.0	 1	    1.06000	    0.94000;
	3	 1	 20.0	 0.0	 0.0	 0.0	 1	    1.00000	    0.00000	 230.0	 1	    1.06000	    0.94000;
	4	 1	 0.0	 0.0	 0.0	 0.0	 1	    1.00000	    0.00000	 345.0	 1	    1.06000	    0.94000;
	5	 1	 353.0	 130.0	 0.0	 0.0	 1	    1.00000	    0.00000	 115.0	 1	    1.06000	    0.94000;
	6	 1	 120.0	 41.0	 0.0	 0.0	 1	    1.00000	    0.00000	 115.0	 1	    1.06000	    0.94000;
	7	 1	 0.0	 0.0	 0.0	 0.0	 1	    1.00000	    0.00000	 230.0	 1	    1.06000	    0.94000;
	8	 2	 63.0	 14.0	 0.0	 0.0	 1	    1.00000	    0.00000	 115.0	 1	    1.06000	    0.94000;
	9	 1	 96.0	 43.0	 0.0	 0.0	 1	    1.00000	    0.00000	 115.0	 1	    1.06000	    0.94000;
	10	 2	 153.0	 33.0	 0.0	 0.0	 1	    1.00000	    0.00000	 230.0	 1	    1.06000	    0.94000;
	11	 1	 83.0	 21.0	 0.0	 0.0	 1	    1.00000	    0.00000	 115.0	 1	    1.06000	    0.94000;
	12	 1	 0.0	 0.0	 0.0	 0.0	 1	    1.00000	    0.00000	 230.0	 1	    1.06000	    0.94000;
	13	 1	 58.0	 10.0	 0.0	 0.0	 1	    1.00000	    0.00000	 115.0	 1	    1.06000	    0.94000;
	14	 1	 160.0	 60.0	 0.0	 0.0	 1	    1.00000	    0.00000	 115.0	 1	    1.06000	    0.94000;
	15	 1	 126.7	 23.0	 0.0	 0.0	 1	    1.00000	    0.00000	 115.0	 1	    1.06000	    0.94000;
	16	 1	 0.0	 0.0	 0.0	 0.0	 1	    1.00000	    0.00000	 345.0	 1	    1.06000	    0.94000;
	17	 1	 561.0	 220.0	 0.0	 0.0	 1	    1.00000	    0.00000	 115.0	 1	    1.06000	    0.94000;
	19	 1	 0.0	 0.0	 0.0	 0.0	 1	    1.00000	    0.00000	 230.0	 1	    1.06000	    0.94000;
	20	 2	 605.0	 120.0	 0.0	 0.0	 1	    1.00000	    0.00000	 115.0	 1	    1.06000	    0.94000;
	21	 1	 77.0	 1.0	 0.0	 0.0	 1	    1.00000	    0.00000	 230.0	 1	    1.06000	    0.94000;
	22	 1	 81.0	 23.0	 0.0	 0.0	 1	    1.00000	    0.00000	 115.0	 1	    1.06000	    0.94000;
	23	 1	 21.0	 7.0	 0.0	 0.0	 1	    1.00000	    0.00000	 115.0	 1	    1.06000	    0.94000;
	24	 1	 0.0	 0.0	 0.0	 0.0	 1	    1.00000	    0.00000	 230.0	 1	    1.06000	    0.94000;
	25	 1	 45.0	 12.0	 0.0	 0.0	 1	    1.00000	    0.00000	 115.0	 1	    1.06000	    0.94000;
	26	 1	 28.0	 9.0	 0.0	 0.0	 1	    1.00000	    0.00000	 115.0	 1	    1.06000	    0.94000;
	27	 1	 69.0	 13.0	 0.0	 0.0	 1	    1.00000	    0.00000	 115.0	 1	    1.06000	    0.94000;
	33	 1	 55.0	 6.0	 0.0	 0.0	 1	    1.00000	    0.00000	 115.0	 1	    1.06000	    0.94000;
	34	 1	 0.0	 0.0	 0.0	 0.0	 1	    1.00000	    0.00000	 345.0	 1	    1.06000	    0.94000;
	35	 1	 0.0	 0.0	 0.0	 0.0	 1	    1.00000	    0.00000	 115.0	 1	    1.06000	    0.94000;
	36	 1	 0.0	 0.0	 0.0	 0.0	 1	    1.00000	    0.00000	 230.0	 1	    1.06000	    0.94000;
	37	 1	 85.0	 32.0	 0.0	 0.0	 1	    1.00000	    0.00000	 115.0	 1	    1.06000	    0.94000;
	38	 1	 155.0	 18.0	 0.0	 0.0	 1	    1.00000	    0.00000	 115.0	 1	    1.06000	    0.94000;
	39	 1	 0.0	 0.0	 0.0	 0.0	 1	    1.00000	    0.00000	 345.0	 1	    1.06000	    0.94000;
	40	 1	 46.0	 -21.0	 0.0	 0.0	 1	    1.00000	    0.00000	 115.0	 1	    1.06000	    0.94000;
	41	 1	 86.0	 0.0	 0.0	 0.0	 1	    1.00000	    0.00000	 115.0	 1	    1.06000	    0.94000;
	42	 1	 0.0	 0.0	 0.0	 0.0	 1	    1.00000	    0.00000	 345.0	 1	    1.06000	    0.94000;
	43	 1	 39.0	 9.0	 0.0	 0.0	 1	    1.00000	    0.00000	 115.0	 1	    1.06000	    0.94000;
	44	 1	 195.0	 29.0	 0.0	 0.0	 1	    1.00000	    0.00000	 115.0	 1	    1.06000	    0.94000;
	45	 1	 0.0	 0.0	 0.0	 0.0	 1	    1.00000	    0.00000	 230.0	 1	    1.06000	    0.94000;
	46	 1	 0.0	 0.0	 0.0	 0.0	 1	    1.00000	    0.00000	 345.0	 1	    1.06000	    0.94000;
	47	 1	 58.0	 11.8	 0.0	 0.0	 1	    1.00000	    0.00000	 115.0	 1	    1.06000	    0.94000;
	48	 1	 41.0	 19.0	 0.0	 0.0	 1	    1.00000	    0.00000	 115.0	 1	    1.06000	    0.94000;
	49	 1	 92.0	 26.0	 0.0	 0.0	 1	    1.00000	    0.00000	 115.0	 1	    1.06000	    0.94000;
	51	 1	 -5.0	 5.0	 0.0	 0.0	 1	    1.00000	    0.00000	 115.0	 1	    1.06000	    0.94000;
	52	 1	 61.0	 28.0	 0.0	 0.0	 1	    1.00000	    0.00000	 115.0	 1	    1.06000	    0.94000;
	53	 1	 69.0	 3.0	 0.0	 0.0	 1	    1.00000	    0.00000	 115.0	 1	    1.06000	    0.94000;
	54	 1	 10.0	 1.0	 0.0	 0.0	 1	    1.00000	    0.00000	 115.0	 1	    1.06000	    0.94000;
	55	 1	 22.0	 10.0	 0.0	 0.0	 1	    1.00000	    0.00000	 115.0	 1	    1.06000	    0.94000;
	57	 1	 98.0	 20.0	 0.0	 0.0	 1	    1.00000	    0.00000	 115.0	 1	    1.06000	    0.94000;
	58	 1	 14.0	 1.0	 0.0	 0.0	 1	    1.00000	    0.00000	 115.0	 1	    1.06000	    0.94000;
	59	 1	 218.0	 106.0	 0.0	 0.0	 1	    1.00000	    0.00000	 115.0	 1	    1.06000	    0.94000;
	60	 1	 0.0	 0.0	 0.0	 0.0	 1	    1.00000	    0.00000	 230.0	 1	    1.06000	    0.94000;
	61	 1	 227.0	 110.0	 0.0	 0.0	 1	    1.00000	    0.00000	 115.0	 1	    1.06000	    0.94000;
	62	 1	 0.0	 0.0	 0.0	 0.0	 1	    1.00000	    0.00000	 230.0	 1	    1.06000	    0.94000;
	63	 2	 70.0	 30.0	 0.0	 0.0	 1	    1.00000	    0.00000	 115.0	 1	    1.06000	    0.94000;
	64	 1	 0.0	 0.0	 0.0	 0.0	 1	    1.00000	    0.00000	 230.0	 1	    1.06000	    0.94000;
	69	 1	 0.0	 0.0	 0.0	 0.0	 1	    1.00000	    0.00000	 115.0	 1	    1.06000	    0.94000;
	70	 1	 56.0	 20.0	 0.0	 0.0	 1	    1.00000	    0.00000	 115.0	 1	    1.06000	    0.94000;
	71	 1	 116.0	 38.0	 0.0	 0.0	 1	    1.00000	    0.00000	 115.0	 1	    1.06000	    0.94000;
	72	 1	 57.0	 19.0	 0.0	 0.0	 1	    1.00000	    0.00000	 115.0	 1	    1.06000	    0.94000;
	73	 1	 224.0	 71.0	 0.0	 0.0	 1	    1.00000	    0.00000	 115.0	 1	    1.06000	    0.94000;
	74	 1	 0.0	 0.0	 0.0	 0.0	 1	    1.00000	    0.00000	 230.0	 1	    1.06000	    0.94000;
	76	 2	 208.0	 107.0	 0.0	 0.0	 1	    1.00000	    0.00000	 115.0	 1	    1.06000	    0.94000;
	77	 1	 74.0	 28.0	 0.0	 0.0	 1	    1.00000	    0.00000	 115.0	 1	    1.06000	    0.94000;
	78	 1	 0.0	 0.0	 0.0	 0.0	 1	    1.00000	    0.00000	 115.0	 1	    1.06000	    0.94000;
	79	 1	 48.0	 14.0	 0.0	 0.0	 1	    1.00000	    0.00000	 115.0	 1	    1.06000	    0.94000;
	80	 1	 28.0	 7.0	 0.0	 0.0	 1	    1.00000	    0.00000	 115.0	 1	    1.06000	    0.94000;
	81	 1	 0.0	 0.0	 0.0	 0.0	 1	    1.00000	    0.00000	 345.0	 1	    1.06000	    0.94000;
	84	 2	 37.0	 13.0	 0.0	 0.0	 1	    1.00000	    0.00000	 115.0	 1	    1.06000	    0.94000;
	85	 1	 0.0	 0.0	 0.0	 0.0	 1	    1.00000	    0.00000	 230.0	 1	    1.06000	    0.94000;
	86	 1	 0.0	 0.0	 0.0	 0.0	 1	    1.00000	    0.00000	 230.0	 1	    1.06000	    0.94000;
	87	 1	 0.0	 0.0	 0.0	 0.0	 1	    1.00000	    0.00000	 230.0	 1	    1.06000	    0.94000;
	88	 1	 0.0	 0.0	 0.0	 0.0	 1	    1.00000	    0.00000	 230.0	 1	    1.06000	    0.94000;
	89	 1	 44.2	 0.0	 0.0	 0.0	 1	    1.00000	    0.00000	 115.0	 1	    1.06000	    0.94000;
	90	 1	 66.0	 0.0	 0.0	 0.0	 1	    1.00000	    0.00000	 115.0	 1	    1.06000	    0.94000;
	91	 2	 17.4	 0.0	 0.0	 0.0	 1	    1.00000	    0.00000	 115.0	 1	    1.06000	    0.94000;
	92	 2	 15.8	 0.0	 0.0	 0.0	 1	    1.00000	    0.00000	 115.0	 1	    1.06000	    0.94000;
	94	 1	 60.3	 0.0	 0.0	 0.0	 1	    1.00000	    0.00000	 115.0	 1	    1.06000	    0.94000;
	97	 1	 39.9	 0.0	 0.0	 0.0	 1	    1.00000	    0.00000	 115.0	 1	    1.06000	    0.94000;
	98	 2	 66.7	 0.0	 0.0	 0.0	 1	    1.00000	    0.00000	 115.0	 1	    1.06000	    0.94000;
	99	 1	 83.5	 0.0	 0.0	 0.0	 1	    1.00000	    0.00000	 115.0	 1	    1.06000	    0.94000;
	100	 1	 0.0	 0.0	 0.0	 0.0	 1	    1.00000	    0.00000	 115.0	 1	    1.06000	    0.94000;
	102	 1	 77.8	 0.0	 0.0	 0.0	 1	    1.00000	    0.00000	 115.0	 1	    1.06000	    0.94000;
	103	 1	 32.0	 0.0	 0.0	 0.0	 1	    1.00000	    0.00000	 115.0	 1	    1.06000	    0.94000;
	104	 1	 8.6	 0.0	 0.0	 0.0	 1	    1.00000	    0.00000	 115.0	 1	    1.06000	    0.94000;
	105	 1	 49.6	 0.0	 0.0	 0.0	 1	    1.00000	    0.00000	 115.0	 1	    1.06000	    0.94000;
	107	 1	 4.6	 0.0	 0.0	 0.0	 1	    1.00000	    0.00000	 115.0	 1	    1.06000	    0.94000;
	108	 2	 112.1	 0.0	 0.0	 0.0	 1	    1.00000	    0.00000	 115.0	 1	    1.06000	    0.94000;
	109	 1	 30.7	 0.0	 0.0	 0.0	 1	    1.00000	    0.00000	 115.0	 1	    1.06000	    0.94000;
	110	 1	 63.0	 0.0	 0.0	 0.0	 1	    1.00000	    0.00000	 115.0	 1	    1.06000	    0.94000;
	112	 1	 19.6	 0.0	 0.0	 0.0	 1	    1.00000	    0.00000	 115.0	 1	    1.06000	    0.94000;
	113	 1	 26.2	 0.0	 0.0	 0.0	 1	    1.00000	    0.00000	 115.0	 1	    1.06000	    0.94000;
	114	 1	 18.2	 0.0	 0.0	 0.0	 1	    1.00000	    0.00000	 115.0	 1	    1.06000	    0.94000;
	115	 1	 0.0	 0.0	 0.0	 0.0	 1	    1.00000	    0.00000	 115.0	 2	    1.06000	    0.94000;
	116	 1	 0.0	 0.0	 0.0	 0.0	 1	    1.00000	    0.00000	 115.0	 2	    1.06000	    0.94000;
	117	 1	 0.0	 0.0	 0.0	 325.0	 1	    1.00000	    0.00000	 115.0	 2	    1.06000	    0.94000;
	118	 1	 14.1	 650.0	 0.0	 0.0	 1	    1.00000	    0.00000	 115.0	 2	    1.06000	    0.94000;
	119	 2	 0.0	 0.0	 0.0	 0.0	 1	    1.00000	    0.00000	 115.0	 2	    1.06000	    0.94000;
	120	 1	 777.0	 215.0	 0.0	 55.0	 1	    1.00000	    0.00000	 115.0	 2	    1.06000	    0.94000;
	121	 1	 535.0	 55.0	 0.0	 0.0	 1	    1.00000	    0.00000	 115.0	 2	    1.06000	    0.94000;
	122	 1	 229.1	 11.8	 0.0	 0.0	 1	    1.00000	    0.00000	 115.0	 2	    1.06000	    0.94000;
	123	 1	 78.0	 1.4	 0.0	 0.0	 1	    1.00000	    0.00000	 115.0	 2	    1.06000	    0.94000;
	124	 2	 276.4	 59.3	 0.0	 0.0	 1	    1.00000	    0.00000	 115.0	 2	    1.06000	    0.94000;
	125	 2	 514.8	 82.7	 0.0	 0.0	 1	    1.00000	    0.00000	 115.0	 2	    1.06000	    0.94000;
	126	 1	 57.9	 5.1	 0.0	 0.0	 1	    1.00000	    0.00000	 115.0	 2	    1.06000	    0.94000;
	127	 1	 380.8	 37.0	 0.0	 0.0	 1	    1.00000	    0.00000	 230.0	 2	    1.06000	    0.94000;
	128	 1	 0.0	 0.0	 0.0	 0.0	 1	    1.00000	    0.00000	 230.0	 2	    1.06000	    0.94000;
	129	 1	 0.0	 0.0	 0.0	 0.0	 1	    1.00000	    0.00000	 230.0	 2	    1.06000	    0.94000;
	130	 1	 0.0	 0.0	 0.0	 0.0	 1	    1.00000	    0.00000	 230.0	 2	    1.06000	    0.94000;
	131	 1	 0.0	 0.0	 0.0	 0.0	 1	    1.00000	    0.00000	 230.0	 2	    1.06000	    0.94000;
	132	 1	 0.0	 0.0	 0.0	 0.0	 1	    1.00000	    0.00000	 230.0	 2	    1.06000	    0.94000;
	133	 1	 0.0	 0.0	 0.0	 0.0	 1	    1.00000	    0.00000	 230.0	 2	    1.06000	    0.94000;
	134	 1	 0.0	 0.0	 0.0	 0.0	 1	    1.00000	    0.00000	 230.0	 2	    1.06000	    0.94000;
	135	 1	 169.2	 41.6	 0.0	 0.0	 1	    1.00000	    0.00000	 230.0	 2	    1.06000	    0.94000;
	136	 1	 55.2	 18.2	 0.0	 0.0	 1	    1.00000	    0.00000	 230.0	 2	    1.06000	    0.94000;
	137	 1	 273.6	 99.8	 0.0	 0.0	 1	    1.00000	    0.00000	 230.0	 2	    1.06000	    0.94000;
	138	 2	 1019.2	 135.2	 0.0	 0.0	 1	    1.00000	    0.00000	 230.0	 2	    1.06000	    0.94000;
	139	 1	 595.0	 83.3	 0.0	 0.0	 1	    1.00000	    0.00000	 115.0	 2	    1.06000	    0.94000;
	140	 1	 387.7	 114.7	 0.0	 0.0	 1	    1.00000	    0.00000	 230.0	 2	    1.06000	    0.94000;
	141	 2	 145.0	 58.0	 0.0	 0.0	 1	    1.00000	    0.00000	 230.0	 2	    1.06000	    0.94000;
	142	 1	 56.5	 24.5	 0.0	 0.0	 1	    1.00000	    0.00000	 230.0	 2	    1.06000	    0.94000;
	143	 2	 89.5	 35.5	 0.0	 0.0	 1	    1.00000	    0.00000	 230.0	 2	    1.06000	    0.94000;
	144	 1	 0.0	 0.0	 0.0	 0.0	 1	    1.00000	    0.00000	 230.0	 2	    1.06000	    0.94000;
	145	 1	 24.0	 14.0	 0.0	 0.0	 1	    1.00000	    0.00000	 230.0	 2	    1.06000	    0.94000;
	146	 2	 0.0	 0.0	 0.0	 0.0	 1	    1.00000	    0.00000	 230.0	 2	    1.06000	    0.94000;
	147	 2	 0.0	 0.0	 0.0	 0.0	 1	    1.00000	    0.00000	 230.0	 2	    1.06000	    0.94000;
	148	 1	 63.0	 25.0	 0.0	 0.0	 1	    1.00000	    0.00000	 230.0	 2	    1.06000	    0.94000;
	149	 2	 0.0	 0.0	 0.0	 0.0	 1	    1.00000	    0.00000	 230.0	 2	    1.06000	    0.94000;
	150	 1	 0.0	 0.0	 0.0	 0.0	 1	    1.00000	    0.00000	 230.0	 2	    1.06000	    0.94000;
	151	 1	 0.0	 0.0	 0.0	 0.0	 1	    1.00000	    0.00000	 230.0	 2	    1.06000	    0.94000;
	152	 2	 17.0	 9.0	 0.0	 0.0	 1	    1.00000	    0.00000	 230.0	 2	    1.06000	    0.94000;
	153	 2	 0.0	 0.0	 0.0	 0.0	 1	    1.00000	    0.00000	 230.0	 2	    1.06000	    0.94000;
	154	 1	 70.0	 5.0	 0.0	 34.5	 1	    1.00000	    0.00000	 115.0	 2	    1.06000	    0.94000;
	155	 1	 200.0	 50.0	 0.0	 0.0	 1	    1.00000	    0.00000	 230.0	 2	    1.06000	    0.94000;
	156	 2	 75.0	 50.0	 0.0	 0.0	 1	    1.00000	    0.00000	 115.0	 2	    1.06000	    0.94000;
	157	 1	 123.5	 -24.3	 0.0	 0.0	 1	    1.00000	    0.00000	 230.0	 2	    1.06000	    0.94000;
	158	 1	 0.0	 0.0	 0.0	 0.0	 1	    1.00000	    0.00000	 230.0	 2	    1.06000	    0.94000;
	159	 1	 33.0	 16.5	 0.0	 0.0	 1	    1.00000	    0.00000	 230.0	 2	    1.06000	    0.94000;
	160	 1	 0.0	 0.0	 0.0	 0.0	 1	    1.00000	    0.00000	 230.0	 2	    1.06000	    0.94000;
	161	 1	 35.0	 15.0	 0.0	 0.0	 1	    1.00000	    0.00000	 230.0	 2	    1.06000	    0.94000;
	162	 1	 85.0	 24.0	 0.0	 0.0	 1	    1.00000	    0.00000	 230.0	 2	    1.06000	    0.94000;
	163	 1	 0.0	 0.4	 0.0	 0.0	 1	    1.00000	    0.00000	 230.0	 2	    1.06000	    0.94000;
	164	 1	 0.0	 0.0	 0.0	 -212.0	 1	    1.00000	    0.00000	 230.0	 2	    1.06000	    0.94000;
	165	 1	 0.0	 0.0	 0.0	 0.0	 1	    1.00000	    0.00000	 230.0	 2	    1.06000	    0.94000;
	166	 1	 0.0	 0.0	 0.0	 -103.0	 1	    1.00000	    0.00000	 230.0	 2	    1.06000	    0.94000;
	167	 1	 299.9	 95.7	 0.0	 0.0	 1	    1.00000	    0.00000	 230.0	 2	    1.06000	    0.94000;
	168	 1	 0.0	 0.0	 0.0	 0.0	 1	    1.00000	    0.00000	 230.0	 2	    1.06000	    0.94000;
	169	 1	 0.0	 0.0	 0.0	 0.0	 1	    1.00000	    0.00000	 230.0	 2	    1.06000	    0.94000;
	170	 2	 481.8	 205.0	 0.0	 0.0	 1	    1.00000	    0.00000	 115.0	 2	    1.06000	    0.94000;
	171	 2	 763.6	 291.1	 0.0	 0.0	 1	    1.00000	    0.00000	 115.0	 2	    1.06000	    0.94000;
	172	 1	 26.5	 0.0	 0.0	 0.0	 1	    1.00000	    0.00000	 115.0	 2	    1.06000	    0.94000;
	173	 1	 163.5	 43.0	 0.0	 53.0	 1	    1.00000	    0.00000	 115.0	 2	    1.06000	    0.94000;
	174	 1	 0.0	 0.0	 0.0	 0.0	 1	    1.00000	    0.00000	 115.0	 2	    1.06000	    0.94000;
	175	 1	 176.0	 83.0	 0.0	 0.0	 1	    1.00000	    0.00000	 115.0	 2	    1.06000	    0.94000;
	176	 2	 5.0	 4.0	 0.0	 0.0	 1	    1.00000	    0.00000	 115.0	 2	    1.06000	    0.94000;
	177	 2	 28.0	 12.0	 0.0	 0.0	 1	    1.00000	    0.00000	 115.0	 2	    1.06000	    0.94000;
	178	 1	 427.4	 173.6	 0.0	 0.0	 1	    1.00000	    0.00000	 115.0	 2	    1.06000	    0.94000;
	179	 1	 74.0	 29.0	 0.0	 45.0	 1	    1.00000	    0.00000	 115.0	 2	    1.06000	    0.94000;
	180	 1	 69.5	 49.3	 0.0	 0.0	 1	    1.00000	    0.00000	 115.0	 2	    1.06000	    0.94000;
	181	 1	 73.4	 0.0	 0.0	 0.0	 1	    1.00000	    0.00000	 230.0	 2	    1.06000	    0.94000;
	182	 1	 240.7	 89.0	 0.0	 0.0	 1	    1.00000	    0.00000	 230.0	 2	    1.06000	    0.94000;
	183	 1	 40.0	 4.0	 0.0	 0.0	 1	    1.00000	    0.00000	 115.0	 2	    1.06000	    0.94000;
	184	 1	 136.8	 16.6	 0.0	 0.0	 1	    1.00000	    0.00000	 230.0	 2	    1.06000	    0.94000;
	185	 2	 0.0	 0.0	 0.0	 0.0	 1	    1.00000	    0.00000	 230.0	 2	    1.06000	    0.94000;
	186	 2	 59.8	 24.3	 0.0	 0.0	 1	    1.00000	    0.00000	 230.0	 2	    1.06000	    0.94000;
	187	 2	 59.8	 24.3	 0.0	 0.0	 1	    1.00000	    0.00000	 230.0	 2	    1.06000	    0.94000;
	188	 1	 182.6	 43.6	 0.0	 0.0	 1	    1.00000	    0.00000	 230.0	 2	    1.06000	    0.94000;
	189	 1	 7.0	 2.0	 0.0	 0.0	 1	    1.00000	    0.00000	 66.0	 3	    1.06000	    0.94000;
	190	 2	 0.0	 0.0	 0.0	 -150.0	 1	    1.00000	    0.00000	 345.0	 3	    1.06000	    0.94000;
	191	 2	 489.0	 53.0	 0.0	 0.0	 1	    1.00000	    0.00000	 230.0	 3	    1.06000	    0.94000;
	192	 1	 800.0	 72.0	 0.0	 0.0	 1	    1.00000	    0.00000	 230.0	 3	    1.06000	    0.94000;
	193	 1	 0.0	 0.0	 0.0	 0.0	 1	    1.00000	    0.00000	 66.0	 3	    1.06000	    0.94000;
	194	 1	 0.0	 0.0	 0.0	 0.0	 1	    1.00000	    0.00000	 345.0	 3	    1.06000	    0.94000;
	195	 1	 0.0	 0.0	 0.0	 0.0	 1	    1.00000	    0.00000	 345.0	 3	    1.06000	    0.94000;
	196	 1	 10.0	 3.0	 0.0	 0.0	 1	    1.00000	    0.00000	 115.0	 3	    1.06000	    0.94000;
	197	 1	 43.0	 14.0	 0.0	 0.0	 1	    1.00000	    0.00000	 115.0	 3	    1.06000	    0.94000;
	198	 2	 64.0	 21.0	 0.0	 0.0	 1	    1.00000	    0.00000	 115.0	 3	    1.06000	    0.94000;
	199	 1	 35.0	 12.0	 0.0	 0.0	 1	    1.00000	    0.00000	 115.0	 3	    1.06000	    0.94000;
	200	 1	 27.0	 12.0	 0.0	 0.0	 1	    1.00000	    0.00000	 115.0	 3	    1.06000	    0.94000;
	201	 1	 41.0	 14.0	 0.0	 0.0	 1	    1.00000	    0.00000	 66.0	 1	    1.06000	    0.94000;
	202	 1	 38.0	 13.0	 0.0	 0.0	 1	    1.00000	    0.00000	 66.0	 3	    1.06000	    0.94000;
	203	 1	 42.0	 14.0	 0.0	 0.0	 1	    1.00000	    0.00000	 115.0	 3	    1.06000	    0.94000;
	204	 1	 72.0	 24.0	 0.0	 0.0	 1	    1.00000	    0.00000	 66.0	 3	    1.06000	    0.94000;
	205	 1	 0.0	 -5.0	 0.0	 0.0	 1	    1.00000	    0.00000	 66.0	 3	    1.06000	    0.94000;
	206	 1	 12.0	 2.0	 0.0	 0.0	 1	    1.00000	    0.00000	 66.0	 3	    1.06000	    0.94000;
	207	 1	 -21.0	 -14.2	 0.0	 0.0	 1	    1.00000	    0.00000	 66.0	 1	    1.06000	    0.94000;
	208	 1	 7.0	 2.0	 0.0	 0.0	 1	    1.00000	    0.00000	 66.0	 3	    1.06000	    0.94000;
	209	 1	 38.0	 13.0	 0.0	 0.0	 1	    1.00000	    0.00000	 66.0	 3	    1.06000	    0.94000;
	210	 1	 0.0	 0.0	 0.0	 0.0	 1	    1.00000	    0.00000	 115.0	 3	    1.06000	    0.94000;
	211	 1	 96.0	 7.0	 0.0	 0.0	 1	    1.00000	    0.00000	 115.0	 3	    1.06000	    0.94000;
	212	 1	 0.0	 0.0	 0.0	 0.0	 1	    1.00000	    0.00000	 138.0	 3	    1.06000	    0.94000;
	213	 2	 0.0	 0.0	 0.0	 0.0	 1	    1.00000	    0.00000	 16.5	 3	    1.06000	    0.94000;
	214	 1	 22.0	 16.0	 0.0	 0.0	 1	    1.00000	    0.00000	 138.0	 3	    1.06000	    0.94000;
	215	 1	 47.0	 26.0	 0.0	 0.0	 1	    1.00000	    0.00000	 138.0	 3	    1.06000	    0.94000;
	216	 1	 176.0	 105.0	 0.0	 0.0	 1	    1.00000	    0.00000	 138.0	 3	    1.06000	    0.94000;
	217	 1	 100.0	 75.0	 0.0	 0.0	 1	    1.00000	    0.00000	 138.0	 3	    1.06000	    0.94000;
	218	 1	 131.0	 96.0	 0.0	 0.0	 1	    1.00000	    0.00000	 138.0	 3	    1.06000	    0.94000;
	219	 1	 0.0	 0.0	 0.0	 0.0	 1	    1.00000	    0.00000	 345.0	 3	    1.06000	    0.94000;
	220	 2	 285.0	 100.0	 0.0	 0.0	 1	    1.00000	    0.00000	 138.0	 3	    1.06000	    0.94000;
	221	 2	 171.0	 70.0	 0.0	 0.0	 1	    1.00000	    0.00000	 138.0	 3	    1.06000	    0.94000;
...
];

%% generator data
%	bus	Pg	Qg	Qmax	Qmin	Vg	mBase	status	Pmax	Pmin
mpc.gen = [
    8	 0.0	 0.0	 150.0	 -10.0	 1.0	 100.0	 1	 0	 0.0; % SYNC
    10	 0.0	 0.0	 40.0	 -20.0	 1.0	 100.0	 1	 0	 0.0; % SYNC
    20	 0.0	 0.0	 250.0	 -20.0	 1.0	 100.0	 1	 0	 0.0; % SYNC
    63	 0.0	 0.0	 80.0	 -25.0	 1.0	 100.0	 1	 0	 0.0; % SYNC
    76	 0.0	 23.5	 140.0	 12.0	 1.0	 100.0	 1	 0	 0.0; % SYNC
	84	 724.0	 0.0	 240.0	 -240.0	 1.0	 100.0	 1	 1448	 0.0; % COW
	91	 92.5	 41.0	 93.0	 -11.0	 1.0	 100.0	 1	 185	 0.0; % NG
	92	 180.0	 0.0	 153.0	 -153.0	 1.0	 100.0	 1	 360	 0.0; % NG
	98	 46.5	 8.5	 47.0	 -30.0	 1.0	 100.0	 1	 93	 0.0; % NG
	108	 98.5	 26.5	 77.0	 -24.0	 1.0	 100.0	 1	 197	 0.0; % NG
    119	 1020.5	 260.5	 1321.0	 -500.0	 1.0	 100.0	 1	 2041	 0.0; % NUC 
    124	 160.5	 30.0	 200.0	 -60.0	 1.0	 100.0	 1	 360	 0.0; % NG
    125	 0.0	 87.5	 350.0	 -25.0	 1.0	 100.0	 1	 0	 0.0; % SYNC
	138	 0.0	 112.5	 350.0	 -125.0	 1.0	 100.0	 1	 0	 0.0; % SYNC
    141	 148.5	 12.5	 75.0	 -50.0	 1.0	 100.0	 1	 330	 0.0; % NG
	143	 400.0	 100.0	 300.0	 -100.0	 1.0	 100.0	 1	 800	 0.0; % COW
    146	 45.5	 10.0	 60.0	 -15.0	 1.0	 100.0	 1	 91	 0.0; % COW
    147	 160.0	 25.0	 100.0	 -50.0	 1.0	 100.0	 1	 320	 0.0; % NG
	149	 138.5	 12.5	 50.0	 -25.0	 1.0	 100.0	 1	 277	 0.0; % NG
    152	 303.0	 62.5	 175.0	 -150.0	 1.0	 100.0	 1	 606	 0.0; % COW
    153	 121.0	 20.0	 90.0	 -75.0	 1.0	 100.0	 1	 242	 0.0; % NG
    156	 0.0	 2.5	 60.0	 -10.0	 1.0	 100.0	 1	 0	 0.0; % SYNC
    170	 165.0	 25.0	 350.0	 -40.0	 1.0	 100.0	 1	 330	 0.0; % NG
    171	 0.0	 50.0	 500.0	 -50.0	 1.0	 100.0	 1	 0	 0.0; % SYNC
	176	 139.0	 22.5	 90.0	 -45.0	 1.0	 100.0	 1	 278	 0.0; % NG
    177	 62.5	 10.0	 140.0	 -15.0	 1.0	 100.0	 1	 125	 0.0; % NG
	185	 125.0	 15.0	 80.0	 -50.0	 1.0	 100.0	 1	 250	 0.0; % NG
	186	 1232.5	 150.0	 400.0	 -100.0	 1.0	 100.0	 1	 2465	 0.0; % COW
	187	 812.0	 150.0	 400.0	 -100.0	 1.0	 100.0	 1	 1624	 0.0; % COW
    190	 257.5	 0.0	 258.0	 -258.0	 1.0	 100.0	 1	 580	 0.0; % NG
	191	 1070.0	 0.0	 1000.0	 -1000.0	 1.0	 100.0	 1	 2140	 0.0; % COW
    198	 215.0	 0.0	 215.0	 -215.0	 1.0	 100.0	 1	 500	 0.0; % NG
    213	 144.0	 0.0	 144.0	 -144.0	 1.0	 100.0	 1	 350	 0.0; % NG
	220	 230.0	 0.0	 60.0	 -60.0	 1.0	 100.0	 1	 460	 0.0; % NG
    221	 277.0	 0.0	 400.0	 -277.0	 1.0	 100.0	 1	 554	 0.0; % NG
	222	 261.5	 0.0	 262.0	 -262.0	 1.0	 100.0	 1	 523	 0.0; % NG
    227	 218.0	 0.0	 320.0	 -218.0	 1.0	 100.0	 1	 436	 0.0; % NG
	230	 229.0	 0.0	 229.0	 -229.0	 1.0	 100.0	 1	 458	 0.0; % NG
    233	 170.5	 0.0	 230.0	 -171.0	 1.0	 100.0	 1	 380	 0.0; % NG
	236	 440.5	 0.0	 300.0	 -300.0	 1.0	 100.0	 1	 881	 0.0; % COW
    238	 133.5	 0.0	 400.0	 -134.0	 1.0	 100.0	 1	 300	 0.0; % NG
	239	 310.5	 0.0	 311.0	 -311.0	 1.0	 100.0	 1	 621	 0.0; % NG
	241	 563.5	 0.0	 564.0	 -564.0	 1.0	 100.0	 1	 1127	 0.0; % COW
    242	 106.0	 70.0	 150.0	 40.0	 1.0	 100.0	 1	 212	 0.0; % PEL
    243	 171.0	 60.0	 80.0	 10.0	 1.0	 100.0	 1	 342	 0.0; % NG
	7001	 284.0	 0.0	 210.0	 -210.0	 1.0	 100.0	 1	 568	 0.0; % NG
	7002	 335.0	 0.0	 280.0	 -280.0	 1.0	 100.0	 1	 670	 0.0; % COW
    7003	 700.5	 0.0	 540.0	 -420.0	 1.0	 100.0	 1	 1401	 0.0; % NUC
    7011	 334.0	 0.0	 150.0	 -100.0	 1.0	 100.0	 1	 668	 0.0; % COW
	7012	 313.0	 0.0	 224.0	 -224.0	 1.0	 100.0	 1	 626	 0.0; % NG
    7017	 245.0	 122.5	 300.0	 0.0	 1.0	 100.0	 1	 490	 0.0; % NG
    7023	 110.0	 55.0	 110.0	 -170.0	 1.0	 100.0	 1	 220	 0.0; % NG
	7024	 271.5	 0.0	 224.0	 -224.0	 1.0	 100.0	 1	 543	 0.0; % NG
	7039	 290.0	 0.0	 200.0	 -200.0	 1.0	 100.0	 1	 580	 0.0; % PEL
    7044	 66.0	 21.0	 70.0	 -30.0	 1.0	 100.0	 1	 132	 0.0; % NG
    7049	 359.0	 5.0	 50.0	 0.0	 1.0	 100.0	 1	 718	 0.0; % NU
    7055	 79.0	 12.5	 40.0	 0.0	 1.0	 100.0	 1	 158	 0.0; % NG
	7057	 167.0	 0.0	 90.0	 -90.0	 1.0	 100.0	 1	 334	 0.0; % NG
	7061	 878.5	 0.0	 150.0	 -150.0	 1.0	 100.0	 1	 1757	 0.0; % COW
    7062	 284.0	 75.0	 200.0	 0.0	 1.0	 100.0	 1	 568	 0.0; % NG
	7071	 101.5	 43.5	 87.0	 0.0	 1.0	 100.0	 1	 203	 0.0; % NG
	7130	 863.0	 250.0	 600.0	 -100.0	 1.0	 100.0	 1	 1726	 0.0; % COW
	7139	 1012.5	 100.0	 325.0	 -125.0	 1.0	 100.0	 1	 2025	 0.0; % COW
	7166	 312.0	 50.0	 300.0	 -200.0	 1.0	 100.0	 1	 624	 0.0; % NG
    9002	 0.0	 0.0	 17.35	 -17.35	 1.0	 100.0	 1	 0	 0.0; % SYNC 
    9051	 0.0	 0.0	 20	 -17.35	 1.0	 100.0	 1	 0	 0.0; % SYNC 
    9053	 0.0	 0.015	 20	 -12.8	 1.0	 100.0	 1	 0	 0.0; % SYNC
    9054	 42.0	 0.0	 80.0	 -38.0	 1.0	 100.0	 1	 84	 0.0; % NG
    9055	 18.5	 0.0	 15.0	 -6.0	 1.0	 100.0	 1	 37	 0.0; % PEL
];
%% generator cost data
%% generator cost data
%	1	startup	shutdown	n	x1	y1	...	xn	yn
%	2	startup	shutdown	n	c(n-1)	...	c0
mpc.gencost = [
	2	0	0	3	0.01	40	0;
	2	0	0	3	0.01	40	0;
	2	0	0	3	0.01	40	0;
	2	0	0	3	0.01	40	0;
	2	0	0	3	0.01	40	0;
	2	0	0	3	0.0266666667	20	0;
	2	0	0	3	0.064516129	20	0;
	2	0	0	3	0.0344827586	20	0;
	2	0	0	3	0.147058824	20	0;
	2	0	0	3	0.0854700855	20	0;
	2	0	0	3	0.00518134715	20	0;
	2	0	0	3	0.0416666667	20	0;
	2	0	0	3	0.01	40	0;
	2	0	0	3	0.01	40	0;
	2	0	0	3	0.0355871886	20	0;
	2	0	0	3	0.0143678161	20	0;
	2	0	0	3	0.119047619	20	0;
	2	0	0	3	0.0460829493	20	0;
	2	0	0	3	0.0970873786	20	0;
	2	0	0	3	0.0268817204	20	0;
	2	0	0	3	0.0462962963	20	0;
	2	0	0	3	0.01	40	0;
	2	0	0	3	0.0487804878	20	0;
	2	0	0	3	0.01	40	0;
	2	0	0	3	0.0438596491	20	0;
	2	0	0	3	0.119047619	20	0;
	2	0	0	3	0.05	20	0;
	2	0	0	3	0.00833333333	20	0;
	2	0	0	3	0.00833333333	20	0;
	2	0	0	3	0.0210526316	20	0;
	2	0	0	3	0.00506842372	20	0;
	2	0	0	3	0.0235849057	20	0;
	2	0	0	3	0.0367647059	20	0;
	2	0	0	3	0.1	20	0;
	2	0	0	3	0.0222222222	20	0;
	2	0	0	3	0.04	20	0;
	2	0	0	3	0.0330033003	20	0;
	2	0	0	3	0.0289855072	20	0;
	2	0	0	3	0.0333333333	20	0;
	2	0	0	3	0.0166666667	20	0;
	2	0	0	3	0.04	20	0;
	2	0	0	3	0.0181818182	20	0;
	2	0	0	3	0.0173783084	20	0;
	2	0	0	3	0.0588235294	20	0;
	2	0	0	3	0.119047619	20	0;
	2	0	0	3	0.0214132762	20	0;
	2	0	0	3	0.0160513644	20	0;
	2	0	0	3	0.00826446281	20	0;
	2	0	0	3	0.0427350427	20	0;
	2	0	0	3	0.0268817204	20	0;
	2	0	0	3	0.0303030303	20	0;
	2	0	0	3	0.0540540541	20	0;
	2	0	0	3	0.0243902439	20	0;
	2	0	0	3	0.02	20	0;
	2	0	0	3	0.27027027	20	0;
	2	0	0	3	0.01	40	0;
	2	0	0	3	0.222222222	20	0;
	2	0	0	3	0.0606060606	20	0;
	2	0	0	3	0.025	20	0;
	2	0	0	3	0.025	20	0;
	2	0	0	3	0.0862068966	20	0;
	2	0	0	3	0.00773993808	20	0;
	2	0	0	3	0.0142857143	20	0;
	2	0	0	3	0.0180831826	20	0;
	2	0	0	3	0.01	40	0;
	2	0	0	3	0.01	40	0;
	2	0	0	3	0.01	40	0;
	2	0	0	3	0.2	20	0;
	2	0	0	3	1.25	20	0;
];

%% branch data
%	fbus	tbus	r	x	b	rateA	rateB	rateC	ratio	angle	status	angmin	angmax
mpc.branch = [
	37	 9001	 6e-05	 0.00046	 0.0	 9900.0	 63230	 63230	 1.0082	 0.0	 1	 -30.0	 30.0;
	9001	 9005	 0.0008	 0.00348	 0.0	 8215	 8215	 8215	 0.0	 0.0	 1	 -30.0	 30.0;
	9001	 9006	 0.02439	 0.43682	 0.0	 68	 68	 68	 0.9668	 0.0	 1	 -30.0	 30.0;
	9001	 9012	 0.03624	 0.64898	 0.0	 46	 46	 46	 0.9796	 0.0	 1	 -30.0	 30.0;
	9005	 9051	 0.01578	 0.37486	 0.0	 79	 79	 79	 1.0435	 0.0	 1	 -30.0	 30.0;
	9005	 9052	 0.01578	 0.37486	 0.0	 79	 79	 79	 0.9391	 0.0	 1	 -30.0	 30.0;
	9005	 9053	 0.01602	 0.38046	 0.0	 78	 78	 78	 1.0435	 0.0	 1	 -30.0	 30.0;
	9005	 9054	 0.0	 0.152	 0.0	 193	 193	 193	 1.0435	 0.0	 1	 -30.0	 30.0;
	9005	 9055	 0.0	 0.8	 0.0	 37	 37	 37	 1.0435	 0.0	 1	 -30.0	 30.0;
	9006	 9007	 0.05558	 0.24666	 0.0	 117	 117	 117	 0.0	 0.0	 1	 -30.0	 30.0;
	9006	 9003	 0.11118	 0.49332	 0.0	 59	 59	 59	 0.0	 0.0	 1	 -30.0	 30.0;
	9006	 9003	 0.11118	 0.49332	 0.0	 59	 59	 59	 0.0	 0.0	 1	 -30.0	 30.0;
	9012	 9002	 0.07622	 0.43286	 0.0	 67	 67	 67	 0.0	 0.0	 1	 -30.0	 30.0;
	9012	 9002	 0.07622	 0.43286	 0.0	 67	 67	 67	 0.0	 0.0	 1	 -30.0	 30.0;
	9002	 9021	 0.0537	 0.07026	 0.0	 332	 332	 332	 0.0	 0.0	 1	 -30.0	 30.0;
	9021	 9023	 1.1068	 0.95278	 0.0	 21	 21	 21	 0.0	 0.0	 1	 -30.0	 30.0;
	9021	 9022	 0.44364	 2.8152	 0.0	 11	 11	 11	 1.0	 0.0	 1	 -30.0	 30.0;
	9002	 9024	 0.50748	 3.2202	 0.0	 9	 9	 9	 1.0	 0.0	 1	 -30.0	 30.0;
	9023	 9025	 0.66688	 3.944	 0.0	 8	 8	 8	 1.0	 0.0	 1	 -30.0	 30.0;
	9023	 9026	 0.6113	 3.6152	 0.0	 8	 8	 8	 1.0	 0.0	 1	 -30.0	 30.0;
	9007	 9071	 0.4412	 2.9668	 0.0	 10	 10	 10	 1.0	 0.0	 1	 -30.0	 30.0;
	9007	 9072	 0.30792	 2.057	 0.0	 15	 15	 15	 1.0	 0.0	 1	 -30.0	 30.0;
	9007	 9003	 0.0558	 0.24666	 0.0	 116	 116	 116	 0.0	 0.0	 1	 -30.0	 30.0;
	9003	 9031	 0.73633	 4.6724	 0.0	 7	 7	 7	 1.0	 0.0	 1	 -30.0	 30.0;
	9003	 9032	 0.76978	 4.8846	 0.0	 6	 6	 6	 1.0	 0.0	 1	 -30.0	 30.0;
	9003	 9033	 0.75732	 4.8056	 0.0	 7	 7	 7	 1.0	 0.0	 1	 -30.0	 30.0;
	9003	 9044	 0.07378	 0.06352	 0.0	 302	 302	 302	 0.0	 0.0	 1	 -30.0	 30.0;
	9044	 9004	 0.03832	 0.02894	 0.0	 611	 611	 611	 0.0	 0.0	 1	 -30.0	 30.0;
	9004	 9041	 0.36614	 2.456	 0.0	 12	 12	 12	 1.0	 0.0	 1	 -30.0	 30.0;
	9004	 9042	 1.0593	 5.4536	 0.0	 6	 6	 6	 1.0	 0.0	 1	 -30.0	 30.0;
	9004	 9043	 0.1567	 1.6994	 0.0	 18	 18	 18	 1.0	 0.0	 1	 -30.0	 30.0;
	9003	 9034	 0.13006	 1.3912	 0.0	 21	 21	 21	 1.0	 0.0	 1	 -30.0	 30.0;
	9003	 9035	 0.54484	 3.4572	 0.0	 9	 9	 9	 1.0	 0.0	 1	 -30.0	 30.0;
	9003	 9036	 0.15426	 1.6729	 0.0	 18	 18	 18	 1.0	 0.0	 1	 -30.0	 30.0;
	9003	 9037	 0.3849	 2.5712	 0.0	 12	 12	 12	 1.0	 0.0	 1	 -30.0	 30.0;
	9003	 9038	 0.4412	 2.9668	 0.0	 10	 10	 10	 1.0	 0.0	 1	 -30.0	 30.0;
	9012	 9121	 0.23552	 0.99036	 0.0	 29	 29	 29	 0.0	 0.0	 1	 -30.0	 30.0;
	9053	 9533	 0.0	 0.75	 0.0	 40	 40	 40	 0.9583	 0.0	 1	 -30.0	 30.0;
	1	 5	 0.001	 0.006	 0.0	 4823	 4823	 4823	 0.0	 0.0	 1	 -30.0	 30.0;
	2	 6	 0.001	 0.009	 0.0	 3240	 3240	 3240	 0.0	 0.0	 1	 -30.0	 30.0;
	2	 8	 0.006	 0.027	 0.054	 1061	 1061	 1061	 0.0	 0.0	 1	 -30.0	 30.0;
	3	 7	 0.0	 0.003	 0.0	 9778	 9778	 9778	 0.0	 0.0	 1	 -30.0	 30.0;
	3	 19	 0.008	 0.069	 0.139	 423	 423	 423	 0.0	 0.0	 1	 -30.0	 30.0;
	3	 150	 0.001	 0.007	 0.0	 4149	 4149	 4149	 0.0	 0.0	 1	 -30.0	 30.0;
	4	 16	 0.002	 0.019	 1.127	 1536	 1536	 1536	 0.0	 0.0	 1	 -30.0	 30.0;
	5	 9	 0.006	 0.029	 0.018	 991	 991	 991	 0.0	 0.0	 1	 -30.0	 30.0;
	7	 12	 0.001	 0.009	 0.07	 3240	 3240	 3240	 0.0	 0.0	 1	 -30.0	 30.0;
	7	 131	 0.001	 0.007	 0.014	 4149	 4149	 4149	 0.0	 0.0	 1	 -30.0	 30.0;
	8	 11	 0.013	 0.0595	 0.033	 482	 482	 482	 0.0	 0.0	 1	 -30.0	 30.0;
	8	 14	 0.013	 0.042	 0.081	 668	 668	 668	 0.0	 0.0	 1	 -30.0	 30.0;
	9	 11	 0.006	 0.027	 0.013	 1061	 1061	 1061	 0.0	 0.0	 1	 -30.0	 30.0;
	11	 13	 0.008	 0.034	 0.018	 840	 840	 840	 0.0	 0.0	 1	 -30.0	 30.0;
	12	 21	 0.002	 0.015	 0.118	 1939	 1939	 1939	 0.0	 0.0	 1	 -30.0	 30.0;
	13	 20	 0.006	 0.034	 0.016	 850	 850	 850	 0.0	 0.0	 1	 -30.0	 30.0;
	14	 15	 0.014	 0.042	 0.097	 663	 663	 663	 0.0	 0.0	 1	 -30.0	 30.0;
	15	 37	 0.065	 0.248	 0.121	 115	 115	 115	 0.0	 0.0	 1	 -30.0	 30.0;
	15	 89	 0.099	 0.248	 0.035	 110	 110	 110	 0.0	 0.0	 1	 -30.0	 30.0;
	15	 90	 0.096	 0.363	 0.048	 79	 79	 79	 0.0	 0.0	 1	 -30.0	 30.0;
	16	 42	 0.002	 0.022	 1.28	 1328	 1328	 1328	 0.0	 0.0	 1	 -30.0	 30.0;
	19	 21	 0.002	 0.018	 0.036	 1620	 1620	 1620	 0.0	 0.0	 1	 -30.0	 30.0;
	19	 87	 0.013	 0.08	 0.151	 362	 362	 362	 0.0	 0.0	 1	 -30.0	 30.0;
	20	 22	 0.016	 0.033	 0.015	 800	 800	 800	 0.0	 0.0	 1	 -30.0	 30.0;
	20	 27	 0.069	 0.186	 0.098	 148	 148	 148	 0.0	 0.0	 1	 -30.0	 30.0;
	21	 24	 0.004	 0.034	 0.28	 857	 857	 857	 0.0	 0.0	 1	 -30.0	 30.0;
	22	 23	 0.052	 0.111	 0.05	 240	 240	 240	 0.0	 0.0	 1	 -30.0	 30.0;
	23	 25	 0.019	 0.039	 0.018	 677	 677	 677	 0.0	 0.0	 1	 -30.0	 30.0;
	24	 319	 0.007	 0.068	 0.134	 430	 430	 430	 0.0	 0.0	 1	 -30.0	 30.0;
	25	 26	 0.036	 0.071	 0.034	 369	 369	 369	 0.0	 0.0	 1	 -30.0	 30.0;
	26	 27	 0.045	 0.12	 0.065	 229	 229	 229	 0.0	 0.0	 1	 -30.0	 30.0;
	26	 320	 0.043	 0.13	 0.014	 215	 215	 215	 0.0	 0.0	 1	 -30.0	 30.0;
	33	 34	 0.0	 0.063	 0.0	 466	 466	 466	 1.0	 0.0	 1	 -30.0	 30.0;
	33	 38	 0.0025	 0.012	 0.013	 2393	 2393	 2393	 0.0	 0.0	 1	 -30.0	 30.0;
	33	 40	 0.006	 0.029	 0.02	 991	 991	 991	 0.0	 0.0	 1	 -30.0	 30.0;
	33	 41	 0.007	 0.043	 0.026	 674	 674	 674	 0.0	 0.0	 1	 -30.0	 30.0;
	34	 42	 0.001	 0.008	 0.042	 3639	 3639	 3639	 0.0	 0.0	 1	 -30.0	 30.0;
	35	 72	 0.012	 0.06	 0.008	 480	 480	 480	 0.0	 0.0	 1	 -30.0	 30.0;
	35	 76	 0.006	 0.014	 0.002	 1926	 1926	 1926	 0.0	 0.0	 1	 -30.0	 30.0;
	35	 77	 0.01	 0.029	 0.003	 957	 957	 957	 0.0	 0.0	 1	 -30.0	 30.0;
	36	 88	 0.004	 0.027	 0.043	 1075	 1075	 1075	 0.0	 0.0	 1	 -30.0	 30.0;
	37	 38	 0.008	 0.047	 0.008	 616	 616	 616	 0.0	 0.0	 1	 -30.0	 30.0;
	37	 40	 0.022	 0.064	 0.007	 434	 434	 434	 0.0	 0.0	 1	 -30.0	 30.0;
	37	 41	 0.01	 0.036	 0.02	 786	 786	 786	 0.0	 0.0	 1	 -30.0	 30.0;
	37	 49	 0.017	 0.081	 0.048	 355	 355	 355	 0.0	 0.0	 1	 -30.0	 30.0;
	37	 89	 0.102	 0.254	 0.033	 108	 108	 108	 0.0	 0.0	 1	 -30.0	 30.0;
	37	 90	 0.047	 0.127	 0.016	 217	 217	 217	 0.0	 0.0	 1	 -30.0	 30.0;
	38	 41	 0.008	 0.037	 0.02	 775	 775	 775	 0.0	 0.0	 1	 -30.0	 30.0;
	38	 43	 0.032	 0.087	 0.04	 317	 317	 317	 0.0	 0.0	 1	 -30.0	 30.0;
	39	 42	 0.0006	 0.0064	 0.404	 4564	 4564	 4564	 0.0	 0.0	 1	 -30.0	 30.0;
	40	 48	 0.026	 0.154	 0.022	 188	 188	 188	 0.0	 0.0	 1	 -30.0	 30.0;
	41	 42	 0.0	 0.029	 0.0	 1012	 1012	 1012	 1.0	 0.0	 1	 -30.0	 30.0;
	41	 49	 0.065	 0.191	 0.02	 146	 146	 146	 0.0	 0.0	 1	 -30.0	 30.0;
	41	 51	 0.031	 0.089	 0.036	 312	 312	 312	 0.0	 0.0	 1	 -30.0	 30.0;
	42	 46	 0.002	 0.014	 0.806	 2075	 2075	 2075	 0.0	 0.0	 1	 -30.0	 30.0;
	43	 44	 0.026	 0.072	 0.035	 384	 384	 384	 0.0	 0.0	 1	 -30.0	 30.0;
	43	 48	 0.095	 0.262	 0.032	 106	 106	 106	 0.0	 0.0	 1	 -30.0	 30.0;
	43	 53	 0.013	 0.039	 0.016	 714	 714	 714	 0.0	 0.0	 1	 -30.0	 30.0;
	44	 47	 0.027	 0.084	 0.039	 333	 333	 333	 0.0	 0.0	 1	 -30.0	 30.0;
	44	 54	 0.028	 0.084	 0.037	 332	 332	 332	 0.0	 0.0	 1	 -30.0	 30.0;
	45	 60	 0.007	 0.041	 0.312	 706	 706	 706	 0.0	 0.0	 1	 -30.0	 30.0;
	45	 74	 0.009	 0.054	 0.411	 536	 536	 536	 0.0	 0.0	 1	 -30.0	 30.0;
	46	 81	 0.005	 0.042	 0.69	 694	 694	 694	 0.0	 0.0	 1	 -30.0	 30.0;
	47	 73	 0.052	 0.145	 0.073	 191	 191	 191	 0.0	 0.0	 1	 -30.0	 30.0;
	47	 113	 0.043	 0.118	 0.013	 234	 234	 234	 0.0	 0.0	 1	 -30.0	 30.0;
	48	 107	 0.025	 0.062	 0.007	 439	 439	 439	 0.0	 0.0	 1	 -30.0	 30.0;
	49	 51	 0.031	 0.094	 0.043	 297	 297	 297	 0.0	 0.0	 1	 -30.0	 30.0;
	51	 52	 0.037	 0.109	 0.049	 255	 255	 255	 0.0	 0.0	 1	 -30.0	 30.0;
	52	 55	 0.027	 0.08	 0.036	 348	 348	 348	 0.0	 0.0	 1	 -30.0	 30.0;
	53	 54	 0.025	 0.073	 0.035	 381	 381	 381	 0.0	 0.0	 1	 -30.0	 30.0;
	54	 55	 0.035	 0.103	 0.047	 270	 270	 270	 0.0	 0.0	 1	 -30.0	 30.0;
	55	 57	 0.065	 0.169	 0.082	 162	 162	 162	 0.0	 0.0	 1	 -30.0	 30.0;
	57	 58	 0.046	 0.08	 0.036	 318	 318	 318	 0.0	 0.0	 1	 -30.0	 30.0;
	57	 63	 0.159	 0.537	 0.071	 53	 53	 53	 0.0	 0.0	 1	 -30.0	 30.0;
	58	 59	 0.009	 0.026	 0.005	 1067	 1067	 1067	 0.0	 0.0	 1	 -30.0	 30.0;
	59	 61	 0.002	 0.013	 0.015	 2231	 2231	 2231	 0.0	 0.0	 1	 -30.0	 30.0;
	60	 62	 0.009	 0.065	 0.485	 447	 447	 447	 0.0	 0.0	 1	 -30.0	 30.0;
	62	 64	 0.016	 0.105	 0.203	 277	 277	 277	 0.0	 0.0	 1	 -30.0	 30.0;
	62	 144	 0.001	 0.007	 0.013	 4149	 4149	 4149	 0.0	 0.0	 1	 -30.0	 30.0;
	63	 526	 0.0265	 0.172	 0.026	 169	 169	 169	 0.0	 0.0	 1	 -30.0	 30.0;
	69	 211	 0.051	 0.232	 0.028	 124	 124	 124	 0.0	 0.0	 1	 -30.0	 30.0;
	69	 79	 0.051	 0.157	 0.023	 178	 178	 178	 0.0	 0.0	 1	 -30.0	 30.0;
	70	 71	 0.032	 0.1	 0.062	 280	 280	 280	 0.0	 0.0	 1	 -30.0	 30.0;
	70	 528	 0.02	 0.1234	 0.028	 235	 235	 235	 0.0	 0.0	 1	 -30.0	 30.0;
	71	 72	 0.036	 0.131	 0.068	 216	 216	 216	 0.0	 0.0	 1	 -30.0	 30.0;
	71	 73	 0.034	 0.099	 0.047	 281	 281	 281	 0.0	 0.0	 1	 -30.0	 30.0;
	72	 77	 0.018	 0.087	 0.011	 331	 331	 331	 0.0	 0.0	 1	 -30.0	 30.0;
	72	 531	 0.0256	 0.193	 0.0	 151	 151	 151	 0.0	 0.0	 1	 -30.0	 30.0;
	73	 76	 0.021	 0.057	 0.03	 483	 483	 483	 0.0	 0.0	 1	 -30.0	 30.0;
	73	 79	 0.018	 0.052	 0.018	 534	 534	 534	 0.0	 0.0	 1	 -30.0	 30.0;
	74	 88	 0.004	 0.027	 0.05	 1075	 1075	 1075	 0.0	 0.0	 1	 -30.0	 30.0;
	74	 562	 0.0286	 0.2013	 0.379	 145	 145	 145	 0.0	 0.0	 1	 -30.0	 30.0;
	76	 77	 0.016	 0.043	 0.004	 640	 640	 640	 0.0	 0.0	 1	 -30.0	 30.0;
	77	 78	 0.001	 0.006	 0.007	 4823	 4823	 4823	 0.0	 0.0	 1	 -30.0	 30.0;
	77	 80	 0.014	 0.07	 0.038	 411	 411	 411	 0.0	 0.0	 1	 -30.0	 30.0;
	77	 552	 0.0891	 0.2676	 0.029	 104	 104	 104	 0.0	 0.0	 1	 -30.0	 30.0;
	77	 609	 0.0782	 0.2127	 0.022	 130	 130	 130	 0.0	 0.0	 1	 -30.0	 30.0;
	78	 79	 0.006	 0.022	 0.011	 1287	 1287	 1287	 0.0	 0.0	 1	 -30.0	 30.0;
	78	 84	 0.0	 0.036	 0.0	 815	 815	 815	 0.0	 0.0	 1	 -30.0	 30.0;
	79	 211	 0.099	 0.375	 0.051	 76	 76	 76	 0.0	 0.0	 1	 -30.0	 30.0;
	80	 211	 0.022	 0.107	 0.058	 269	 269	 269	 0.0	 0.0	 1	 -30.0	 30.0;
	81	 194	 0.0035	 0.033	 0.53	 884	 884	 884	 0.0	 0.0	 1	 -30.0	 30.0;
	81	 195	 0.0035	 0.033	 0.53	 884	 884	 884	 0.0	 0.0	 1	 -30.0	 30.0;
	85	 86	 0.008	 0.064	 0.128	 455	 455	 455	 0.0	 0.0	 1	 -30.0	 30.0;
	86	 87	 0.012	 0.093	 0.183	 313	 313	 313	 0.0	 0.0	 1	 -30.0	 30.0;
	86	 323	 0.006	 0.048	 0.092	 607	 607	 607	 0.0	 0.0	 1	 -30.0	 30.0;
	89	 91	 0.047	 0.119	 0.014	 230	 230	 230	 0.0	 0.0	 1	 -30.0	 30.0;
	90	 92	 0.032	 0.174	 0.024	 166	 166	 166	 0.0	 0.0	 1	 -30.0	 30.0;
	91	 94	 0.1	 0.253	 0.031	 108	 108	 108	 0.0	 0.0	 1	 -30.0	 30.0;
	91	 97	 0.022	 0.077	 0.039	 367	 367	 367	 0.0	 0.0	 1	 -30.0	 30.0;
	92	 103	 0.019	 0.144	 0.017	 202	 202	 202	 0.0	 0.0	 1	 -30.0	 30.0;
	92	 105	 0.017	 0.092	 0.012	 314	 314	 314	 0.0	 0.0	 1	 -30.0	 30.0;
	94	 97	 0.278	 0.427	 0.043	 58	 58	 58	 0.0	 0.0	 1	 -30.0	 30.0;
	97	 100	 0.022	 0.053	 0.007	 512	 512	 512	 0.0	 0.0	 1	 -30.0	 30.0;
	97	 102	 0.038	 0.092	 0.012	 295	 295	 295	 0.0	 0.0	 1	 -30.0	 30.0;
	97	 103	 0.048	 0.122	 0.015	 224	 224	 224	 0.0	 0.0	 1	 -30.0	 30.0;
	98	 100	 0.024	 0.064	 0.007	 430	 430	 430	 0.0	 0.0	 1	 -30.0	 30.0;
	98	 102	 0.034	 0.121	 0.015	 234	 234	 234	 0.0	 0.0	 1	 -30.0	 30.0;
	99	 107	 0.053	 0.135	 0.017	 203	 203	 203	 0.0	 0.0	 1	 -30.0	 30.0;
	99	 108	 0.002	 0.004	 0.002	 6559	 6559	 6559	 0.0	 0.0	 1	 -30.0	 30.0;
	99	 109	 0.045	 0.354	 0.044	 83	 83	 83	 0.0	 0.0	 1	 -30.0	 30.0;
	99	 110	 0.05	 0.174	 0.022	 163	 163	 163	 0.0	 0.0	 1	 -30.0	 30.0;
	100	 102	 0.016	 0.038	 0.004	 712	 712	 712	 0.0	 0.0	 1	 -30.0	 30.0;
	102	 104	 0.043	 0.064	 0.027	 381	 381	 381	 0.0	 0.0	 1	 -30.0	 30.0;
	103	 105	 0.019	 0.062	 0.008	 453	 453	 453	 0.0	 0.0	 1	 -30.0	 30.0;
	104	 108	 0.076	 0.13	 0.044	 195	 195	 195	 0.0	 0.0	 1	 -30.0	 30.0;
	104	 322	 0.044	 0.124	 0.015	 223	 223	 223	 0.0	 0.0	 1	 -30.0	 30.0;
	105	 107	 0.012	 0.088	 0.011	 331	 331	 331	 0.0	 0.0	 1	 -30.0	 30.0;
	105	 110	 0.157	 0.4	 0.047	 69	 69	 69	 0.0	 0.0	 1	 -30.0	 30.0;
	108	 324	 0.074	 0.208	 0.026	 133	 133	 133	 0.0	 0.0	 1	 -30.0	 30.0;
	109	 110	 0.07	 0.184	 0.021	 149	 149	 149	 0.0	 0.0	 1	 -30.0	 30.0;
	109	 113	 0.1	 0.274	 0.031	 101	 101	 101	 0.0	 0.0	 1	 -30.0	 30.0;
	109	 114	 0.109	 0.393	 0.036	 72	 72	 72	 0.0	 0.0	 1	 -30.0	 30.0;
	110	 112	 0.142	 0.404	 0.05	 69	 69	 69	 0.0	 0.0	 1	 -30.0	 30.0;
	112	 114	 0.017	 0.042	 0.006	 648	 648	 648	 0.0	 0.0	 1	 -30.0	 30.0;
	115	 122	 0.0036	 0.0199	 0.004	 1451	 1451	 1451	 0.0	 0.0	 1	 -30.0	 30.0;
	116	 120	 0.002	 0.1049	 0.001	 280	 280	 280	 0.0	 0.0	 1	 -30.0	 30.0;
	117	 118	 0.0001	 0.0018	 0.017	 9900.0	 16271	 16271	 0.0	 0.0	 1	 -30.0	 30.0;
	118	 119	 0.0	 0.0271	 0.0	 1083	 1083	 1083	 0.0	 0.0	 1	 -30.0	 30.0;
	118	 1201	 0.0	 0.6163	 0.0	 48	 48	 48	 0.0	 0.0	 1	 -30.0	 30.0;
	1201	 120	 0.0	 -0.3697	 0.0	 80	 80	 80	 0.0	 0.0	 1	 -30.0	 30.0;
	118	 121	 0.0022	 0.2915	 0.0	 101	 101	 101	 0.0	 0.0	 1	 -30.0	 30.0;
	119	 120	 0.0	 0.0339	 0.0	 866	 866	 866	 0.0	 0.0	 1	 -30.0	 30.0;
% 	119	 121	 0.0	 0.0582	 0.0	 504	 504	 504	 0.0	 0.0	 1	 -30.0	 30.0;
    119	 121	 0.0	 0.1	 0.0	 504	 504	 504	 0.0	 0.0	 1	 -30.0	 30.0;
	122	 123	 0.0808	 0.2344	 0.029	 119	 119	 119	 0.0	 0.0	 1	 -30.0	 30.0;
	122	 125	 0.0965	 0.3669	 0.054	 78	 78	 78	 0.0	 0.0	 1	 -30.0	 30.0;
	123	 124	 0.036	 0.1076	 0.117	 259	 259	 259	 0.0	 0.0	 1	 -30.0	 30.0;
	123	 125	 0.0476	 0.1414	 0.149	 197	 197	 197	 0.0	 0.0	 1	 -30.0	 30.0;
	125	 126	 0.0006	 0.0197	 0.0	 1489	 1489	 1489	 0.0	 0.0	 1	 -30.0	 30.0;
	126	 127	 0.0059	 0.0405	 0.25	 717	 717	 717	 1.0	 0.0	 1	 -30.0	 30.0;
	126	 129	 0.0115	 0.1106	 0.185	 264	 264	 264	 1.0	 0.0	 1	 -30.0	 30.0;
% 	126	 132	 0.0198	 0.1688	 0.321	 173	 173	 173	 1.0	 0.0	 1	 -30.0	 30.0;
    126	 132	 0.0198	 0.1688	 0.321	 185	 185	 185	 1.0	 0.0	 1	 -30.0	 30.0;
	126	 157	 0.005	 0.05	 0.33	 584	 584	 584	 1.0	 0.0	 1	 -30.0	 30.0;
	126	 158	 0.0077	 0.0538	 0.335	 540	 540	 540	 1.0	 0.0	 1	 -30.0	 30.0;
	126	 169	 0.0165	 0.1157	 0.171	 251	 251	 251	 1.0	 0.0	 1	 -30.0	 30.0;
	127	 128	 0.0059	 0.0577	 0.095	 506	 506	 506	 0.0	 0.0	 1	 -30.0	 30.0;
	127	 134	 0.0049	 0.0336	 0.208	 864	 864	 864	 0.0	 0.0	 1	 -30.0	 30.0;
	127	 168	 0.0059	 0.0577	 0.095	 506	 506	 506	 0.0	 0.0	 1	 -30.0	 30.0;
	128	 130	 0.0078	 0.0773	 0.126	 378	 378	 378	 0.0	 0.0	 1	 -30.0	 30.0;
	128	 133	 0.0026	 0.0193	 0.03	 1507	 1507	 1507	 0.0	 0.0	 1	 -30.0	 30.0;
	129	 130	 0.0076	 0.0752	 0.122	 389	 389	 389	 0.0	 0.0	 1	 -30.0	 30.0;
	129	 133	 0.0021	 0.0186	 0.03	 1568	 1568	 1568	 0.0	 0.0	 1	 -30.0	 30.0;
	130	 132	 0.0016	 0.0164	 0.026	 1781	 1781	 1781	 0.0	 0.0	 1	 -30.0	 30.0;
	130	 151	 0.0017	 0.0165	 0.026	 1769	 1769	 1769	 0.0	 0.0	 1	 -30.0	 30.0;
	130	 167	 0.0079	 0.0793	 0.127	 369	 369	 369	 0.0	 0.0	 1	 -30.0	 30.0;
	130	 168	 0.0078	 0.0784	 0.125	 373	 373	 373	 0.0	 0.0	 1	 -30.0	 30.0;
	133	 137	 0.0017	 0.0117	 0.289	 2481	 2481	 2481	 0.0	 0.0	 1	 -30.0	 30.0;
	133	 168	 0.0026	 0.0193	 0.03	 1507	 1507	 1507	 0.0	 0.0	 1	 -30.0	 30.0;
	133	 169	 0.0021	 0.0186	 0.03	 1568	 1568	 1568	 0.0	 0.0	 1	 -30.0	 30.0;
	133	 171	 0.0002	 0.0101	 0.0	 2904	 2904	 2904	 1.0	 0.0	 1	 -30.0	 30.0;
	134	 135	 0.0043	 0.0293	 0.18	 991	 991	 991	 0.0	 0.0	 1	 -30.0	 30.0;
	134	 184	 0.0039	 0.0381	 0.258	 766	 766	 766	 0.0	 0.0	 1	 -30.0	 30.0;
	135	 136	 0.0091	 0.0623	 0.385	 466	 466	 466	 0.0	 0.0	 1	 -30.0	 30.0;
	136	 137	 0.0125	 0.089	 0.54	 327	 327	 327	 0.0	 0.0	 1	 -30.0	 30.0;
	136	 152	 0.0056	 0.039	 0.953	 745	 745	 745	 0.0	 0.0	 1	 -30.0	 30.0;
	137	 140	 0.0015	 0.0114	 0.284	 2551	 2551	 2551	 0.0	 0.0	 1	 -30.0	 30.0;
	137	 181	 0.0005	 0.0034	 0.021	 8536	 8536	 8536	 0.0	 0.0	 1	 -30.0	 30.0;
	137	 186	 0.0007	 0.0151	 0.126	 1941	 1941	 1941	 0.0	 0.0	 1	 -30.0	 30.0;
	137	 188	 0.0005	 0.0034	 0.021	 8536	 8536	 8536	 0.0	 0.0	 1	 -30.0	 30.0;
	139	 172	 0.0562	 0.2248	 0.081	 127	 127	 127	 0.0	 0.0	 1	 -30.0	 30.0;
	140	 141	 0.012	 0.0836	 0.123	 348	 348	 348	 0.0	 0.0	 1	 -30.0	 30.0;
	140	 142	 0.0152	 0.1132	 0.684	 257	 257	 257	 0.0	 0.0	 1	 -30.0	 30.0;
	140	 145	 0.0468	 0.3369	 0.519	 87	 87	 87	 0.0	 0.0	 1	 -30.0	 30.0;
	140	 146	 0.043	 0.3031	 0.463	 96	 96	 96	 0.0	 0.0	 1	 -30.0	 30.0;
	140	 147	 0.0489	 0.3492	 0.538	 84	 84	 84	 0.0	 0.0	 1	 -30.0	 30.0;
	140	 182	 0.0013	 0.0089	 0.119	 3262	 3262	 3262	 0.0	 0.0	 1	 -30.0	 30.0;
	141	 146	 0.0291	 0.2267	 0.342	 129	 129	 129	 0.0	 0.0	 1	 -30.0	 30.0;
	142	 143	 0.006	 0.057	 0.767	 512	 512	 512	 0.0	 0.0	 1	 -30.0	 30.0;
	143	 145	 0.0075	 0.0773	 0.119	 378	 378	 378	 0.0	 0.0	 1	 -30.0	 30.0;
	143	 149	 0.0127	 0.0909	 0.135	 320	 320	 320	 0.0	 0.0	 1	 -30.0	 30.0;
	145	 146	 0.0085	 0.0588	 0.087	 494	 494	 494	 0.0	 0.0	 1	 -30.0	 30.0;
	145	 149	 0.0218	 0.1511	 0.223	 193	 193	 193	 0.0	 0.0	 1	 -30.0	 30.0;
	146	 147	 0.0073	 0.0504	 0.074	 576	 576	 576	 0.0	 0.0	 1	 -30.0	 30.0;
	148	 178	 0.0523	 0.1526	 0.074	 182	 182	 182	 1.0	 0.0	 1	 -30.0	 30.0;
	148	 179	 0.1371	 0.3919	 0.076	 71	 71	 71	 1.0	 0.0	 1	 -30.0	 30.0;
	152	 153	 0.0137	 0.0957	 0.141	 304	 304	 304	 0.0	 0.0	 1	 -30.0	 30.0;
	153	 161	 0.0055	 0.0288	 0.19	 1001	 1001	 1001	 0.0	 0.0	 1	 -30.0	 30.0;
	154	 156	 0.1746	 0.3161	 0.04	 82	 82	 82	 0.0	 0.0	 1	 -30.0	 30.0;
	154	 183	 0.0804	 0.3054	 0.045	 93	 93	 93	 0.0	 0.0	 1	 -30.0	 30.0;
	155	 161	 0.011	 0.0568	 0.388	 507	 507	 507	 0.0	 0.0	 1	 -30.0	 30.0;
	157	 159	 0.0008	 0.0098	 0.069	 2984	 2984	 2984	 0.0	 0.0	 1	 -30.0	 30.0;
	158	 159	 0.0029	 0.0285	 0.19	 1024	 1024	 1024	 0.0	 0.0	 1	 -30.0	 30.0;
	158	 160	 0.0066	 0.0448	 0.277	 648	 648	 648	 0.0	 0.0	 1	 -30.0	 30.0;
	162	 164	 0.0024	 0.0326	 0.236	 898	 898	 898	 0.0	 0.0	 1	 -30.0	 30.0;
	162	 165	 0.0018	 0.0245	 1.662	 1195	 1195	 1195	 0.0	 0.0	 1	 -30.0	 30.0;
	163	 164	 0.0044	 0.0514	 3.597	 569	 569	 569	 0.0	 0.0	 1	 -30.0	 30.0;
	165	 166	 0.0002	 0.0123	 0.0	 2385	 2385	 2385	 0.0	 0.0	 1	 -30.0	 30.0;
	167	 169	 0.0018	 0.0178	 0.029	 1640	 1640	 1640	 0.0	 0.0	 1	 -30.0	 30.0;
	172	 173	 0.0669	 0.4843	 0.063	 60	 60	 60	 0.0	 0.0	 1	 -30.0	 30.0;
	172	 174	 0.0558	 0.221	 0.031	 129	 129	 129	 0.0	 0.0	 1	 -30.0	 30.0;
	173	 174	 0.0807	 0.3331	 0.049	 86	 86	 86	 0.0	 0.0	 1	 -30.0	 30.0;
	173	 175	 0.0739	 0.3071	 0.043	 93	 93	 93	 0.0	 0.0	 1	 -30.0	 30.0;
% 	173	 176	 0.1799	 0.5017	 0.069	 56	 56	 56	 0.0	 0.0	 1	 -30.0	 30.0;
    173	 176	 0.1799	 0.5017	 0.069	 79	 79	 79	 0.0	 0.0	 1	 -30.0	 30.0;
	175	 176	 0.0904	 0.3626	 0.048	 79	 79	 79	 0.0	 0.0	 1	 -30.0	 30.0;
	175	 179	 0.077	 0.3092	 0.054	 93	 93	 93	 0.0	 0.0	 1	 -30.0	 30.0;
	176	 177	 0.0251	 0.0829	 0.047	 339	 339	 339	 0.0	 0.0	 1	 -30.0	 30.0;
	177	 178	 0.0222	 0.0847	 0.05	 335	 335	 335	 0.0	 0.0	 1	 -30.0	 30.0;
	178	 179	 0.0498	 0.1855	 0.029	 153	 153	 153	 0.0	 0.0	 1	 -30.0	 30.0;
	178	 180	 0.0061	 0.029	 0.084	 990	 990	 990	 0.0	 0.0	 1	 -30.0	 30.0;
	181	 138	 0.0004	 0.0202	 0.0	 1452	 1452	 1452	 0.0	 0.0	 1	 -30.0	 30.0;
	181	 187	 0.0004	 0.0083	 0.115	 3530	 3530	 3530	 0.0	 0.0	 1	 -30.0	 30.0;
	184	 185	 0.0025	 0.0245	 0.164	 1192	 1192	 1192	 0.0	 0.0	 1	 -30.0	 30.0;
	186	 188	 0.0007	 0.0086	 0.115	 3400	 3400	 3400	 0.0	 0.0	 1	 -30.0	 30.0;
	187	 188	 0.0007	 0.0086	 0.115	 3400	 3400	 3400	 0.0	 0.0	 1	 -30.0	 30.0;
	188	 138	 0.0004	 0.0202	 0.0	 1452	 1452	 1452	 0.0	 0.0	 1	 -30.0	 30.0;
	189	 208	 0.033	 0.095	 0.0	 292	 292	 292	 0.0	 0.0	 1	 -30.0	 30.0;
	189	 209	 0.046	 0.069	 0.0	 354	 354	 354	 0.0	 0.0	 1	 -30.0	 30.0;
	190	 231	 0.0004	 0.0022	 6.2	 9900.0	 13118	 13118	 0.0	 0.0	 1	 -30.0	 30.0;
	190	 240	 0.0	 0.0275	 0.0	 1067	 1067	 1067	 1.0	 0.0	 1	 -30.0	 30.0;
% 	191	 192	 0.003	 0.048	 0.0	 610	 610	 610	 0.0	 0.0	 1	 -30.0	 30.0;
    191	 192	 0.003	 0.048	 0.0	 850	 750	 710	 0.0	 0.0	 1	 -30.0	 30.0;
	192	 225	 0.002	 0.009	 0.0	 3182	 3182	 3182	 0.0	 0.0	 1	 -30.0	 30.0;
	193	 205	 0.045	 0.063	 0.0	 379	 379	 379	 0.0	 0.0	 1	 -30.0	 30.0;
	193	 208	 0.048	 0.127	 0.0	 217	 217	 217	 0.0	 0.0	 1	 -30.0	 30.0;
	194	 219	 0.0031	 0.0286	 0.5	 1020	 1020	 1020	 0.0	 0.0	 1	 -30.0	 30.0;
	194	 664	 0.0024	 0.0355	 0.36	 825	 825	 825	 0.0	 0.0	 1	 -30.0	 30.0;
	195	 219	 0.0031	 0.0286	 0.5	 1020	 1020	 1020	 0.0	 0.0	 1	 -30.0	 30.0;
	196	 197	 0.014	 0.04	 0.004	 693	 693	 693	 0.0	 0.0	 1	 -30.0	 30.0;
	196	 210	 0.03	 0.081	 0.01	 340	 340	 340	 0.0	 0.0	 1	 -30.0	 30.0;
	197	 198	 0.01	 0.06	 0.009	 483	 483	 483	 0.0	 0.0	 1	 -30.0	 30.0;
	197	 211	 0.015	 0.04	 0.006	 687	 687	 687	 0.0	 0.0	 1	 -30.0	 30.0;
	198	 202	 0.332	 0.688	 0.0	 39	 39	 39	 1.0	 0.0	 1	 -30.0	 30.0;
	198	 203	 0.009	 0.046	 0.025	 626	 626	 626	 0.0	 0.0	 1	 -30.0	 30.0;
	198	 210	 0.02	 0.073	 0.008	 388	 388	 388	 0.0	 0.0	 1	 -30.0	 30.0;
	198	 211	 0.034	 0.109	 0.032	 257	 257	 257	 0.0	 0.0	 1	 -30.0	 30.0;
	199	 200	 0.076	 0.135	 0.009	 190	 190	 190	 0.0	 0.0	 1	 -30.0	 30.0;
	199	 210	 0.04	 0.102	 0.005	 268	 268	 268	 0.0	 0.0	 1	 -30.0	 30.0;
	200	 210	 0.081	 0.128	 0.014	 194	 194	 194	 0.0	 0.0	 1	 -30.0	 30.0;
	201	 204	 0.124	 0.183	 0.0	 133	 133	 133	 0.0	 0.0	 1	 -30.0	 30.0;
	203	 211	 0.01	 0.059	 0.008	 491	 491	 491	 0.0	 0.0	 1	 -30.0	 30.0;
	204	 205	 0.046	 0.068	 0.0	 358	 358	 358	 0.0	 0.0	 1	 -30.0	 30.0;
	205	 206	 0.302	 0.446	 0.0	 55	 55	 55	 0.0	 0.0	 1	 -30.0	 30.0;
	206	 207	 0.073	 0.093	 0.0	 249	 249	 249	 0.0	 0.0	 1	 -30.0	 30.0;
	206	 208	 0.24	 0.421	 0.0	 61	 61	 61	 0.0	 0.0	 1	 -30.0	 30.0;
	212	 215	 0.0139	 0.0778	 0.086	 372	 372	 372	 0.0	 0.0	 1	 -30.0	 30.0;
	213	 214	 0.0025	 0.038	 0.0	 771	 771	 771	 1.0	 0.0	 1	 -30.0	 30.0;
	214	 215	 0.0017	 0.0185	 0.02	 1579	 1579	 1579	 0.0	 0.0	 1	 -30.0	 30.0;
	214	 242	 0.0015	 0.0108	 0.002	 2691	 2691	 2691	 0.0	 0.0	 1	 -30.0	 30.0;
	215	 216	 0.0045	 0.0249	 0.026	 1160	 1160	 1160	 0.0	 0.0	 1	 -30.0	 30.0;
	216	 217	 0.004	 0.0497	 0.018	 589	 589	 589	 0.0	 0.0	 1	 -30.0	 30.0;
	217	 218	 0.0	 0.0456	 0.0	 644	 644	 644	 0.0	 0.0	 1	 -30.0	 30.0;
	217	 219	 0.0005	 0.0177	 0.02	 1657	 1657	 1657	 1.0	 0.0	 1	 -30.0	 30.0;
	217	 220	 0.0027	 0.0395	 0.832	 741	 741	 741	 0.0	 0.0	 1	 -30.0	 30.0;
	219	 237	 0.0003	 0.0018	 5.2	 9900.0	 16074	 16074	 0.0	 0.0	 1	 -30.0	 30.0;
	220	 218	 0.0037	 0.0484	 0.43	 605	 605	 605	 0.0	 0.0	 1	 -30.0	 30.0;
	220	 221	 0.001	 0.0295	 0.503	 994	 994	 994	 0.0	 0.0	 1	 -30.0	 30.0;
	220	 238	 0.0016	 0.0046	 0.402	 6023	 6023	 6023	 0.0	 0.0	 1	 -30.0	 30.0;
	221	 223	 0.0003	 0.0013	 1.0	 9900.0	 21986	 21986	 0.0	 0.0	 1	 -30.0	 30.0;
	222	 237	 0.0014	 0.0514	 0.33	 571	 571	 571	 1.0	 0.0	 1	 -30.0	 30.0;
	224	 225	 0.01	 0.064	 0.48	 453	 453	 453	 0.0	 0.0	 1	 -30.0	 30.0;
	224	 226	 0.0019	 0.0081	 0.86	 3526	 3526	 3526	 0.0	 0.0	 1	 -30.0	 30.0;
% 	225	 191	 0.001	 0.061	 0.0	 481	 481	 481	 0.0	 0.0	 1	 -30.0	 30.0;%%%%
    225	 191	 0.001	 0.061	 0.0	 800	 750	 750	 0.0	 0.0	 1	 -30.0	 30.0;
	226	 231	 0.0005	 0.0212	 0.0	 1384	 1384	 1384	 1.0	 0.0	 1	 -30.0	 30.0;
	227	 231	 0.0009	 0.0472	 0.186	 622	 622	 622	 1.0	 0.0	 1	 -30.0	 30.0;
	228	 229	 0.0019	 0.0087	 1.28	 3294	 3294	 3294	 0.0	 0.0	 1	 -30.0	 30.0;
	228	 231	 0.0026	 0.0917	 0.0	 320	 320	 320	 1.0	 0.0	 1	 -30.0	 30.0;
	228	 234	 0.0013	 0.0288	 0.81	 1018	 1018	 1018	 0.0	 0.0	 1	 -30.0	 30.0;
	229	 190	 0.0	 0.0626	 0.0	 469	 469	 469	 1.0	 0.0	 1	 -30.0	 30.0;
	231	 232	 0.0002	 0.0069	 1.364	 4250	 4250	 4250	 1.0	 0.0	 1	 -30.0	 30.0;
	231	 237	 0.0001	 0.0006	 3.57	 9900.0	 48222	 48222	 0.0	 0.0	 1	 -30.0	 30.0;
	232	 233	 0.0017	 0.0485	 0.0	 605	 605	 605	 1.0	 0.0	 1	 -30.0	 30.0;
	234	 235	 0.0002	 0.0259	 0.144	 1133	 1133	 1133	 0.0	 0.0	 1	 -30.0	 30.0;
	234	 237	 0.0006	 0.0272	 0.0	 1079	 1079	 1079	 1.0	 0.0	 1	 -30.0	 30.0;
	235	 238	 0.0002	 0.0006	 0.8	 9900.0	 46378	 46378	 0.0	 0.0	 1	 -30.0	 30.0;
	241	 237	 0.0005	 0.0154	 0.0	 1904	 1904	 1904	 1.0	 0.0	 1	 -30.0	 30.0;
	240	 281	 0.0003	 0.0043	 0.009	 6805	 6805	 6805	 0.0	 0.0	 1	 -30.0	 30.0;
	242	 245	 0.0082	 0.0851	 0.0	 344	 344	 344	 1.0	 0.0	 1	 -30.0	 30.0;
	242	 247	 0.0112	 0.0723	 0.0	 401	 401	 401	 1.0	 0.0	 1	 -30.0	 30.0;
	243	 244	 0.0127	 0.0355	 0.0	 778	 778	 778	 0.0	 0.0	 1	 -30.0	 30.0;
	243	 245	 0.0326	 0.1804	 0.0	 161	 161	 161	 0.0	 0.0	 1	 -30.0	 30.0;
	244	 246	 0.0195	 0.0551	 0.0	 502	 502	 502	 0.0	 0.0	 1	 -30.0	 30.0;
	245	 246	 0.0157	 0.0732	 0.0	 392	 392	 392	 0.0	 0.0	 1	 -30.0	 30.0;
	245	 247	 0.036	 0.2119	 0.0	 137	 137	 137	 0.0	 0.0	 1	 -30.0	 30.0;
	246	 247	 0.0268	 0.1285	 0.0	 224	 224	 224	 0.0	 0.0	 1	 -30.0	 30.0;
	247	 248	 0.0428	 0.1215	 0.0	 228	 228	 228	 0.0	 0.0	 1	 -30.0	 30.0;
	248	 249	 0.0351	 0.1004	 0.0	 276	 276	 276	 0.0	 0.0	 1	 -30.0	 30.0;
	249	 250	 0.0616	 0.1857	 0.0	 150	 150	 150	 0.0	 0.0	 1	 -30.0	 30.0;
	3	 1	 0.0	 0.052	 0.0	 565	 565	 565	 0.947	 0.0	 1	 -30.0	 30.0;
	3	 2	 0.0	 0.052	 0.0	 565	 565	 565	 0.956	 0.0	 1	 -30.0	 30.0;
	3	 4	 0.0	 0.005	 0.0	 5867	 5867	 5867	 0.971	 0.0	 1	 -30.0	 30.0;
	7	 5	 0.0	 0.039	 0.0	 753	 753	 753	 0.948	 0.0	 1	 -30.0	 30.0;
	7	 6	 0.0	 0.039	 0.0	 753	 753	 753	 0.959	 0.0	 1	 -30.0	 30.0;
	10	 11	 0.0	 0.089	 0.0	 330	 330	 330	 1.046	 0.0	 1	 -30.0	 30.0;
	12	 10	 0.0	 0.053	 0.0	 554	 554	 554	 0.985	 0.0	 1	 -30.0	 30.0;
	15	 17	 0.0194	 0.0311	 0.0	 801	 801	 801	 0.9561	 0.0	 1	 -30.0	 30.0;
	16	 15	 0.001	 0.038	 0.0	 772	 772	 772	 0.971	 0.0	 1	 -30.0	 30.0;
	21	 20	 0.0	 0.014	 0.0	 2096	 2096	 2096	 0.952	 0.0	 1	 -30.0	 30.0;
	24	 23	 0.0	 0.064	 0.0	 459	 459	 459	 0.943	 0.0	 1	 -30.0	 30.0;
	36	 35	 0.0	 0.047	 0.0	 625	 625	 625	 1.01	 0.0	 1	 -30.0	 30.0;
	45	 44	 0.0	 0.02	 0.0	 1467	 1467	 1467	 1.008	 0.0	 1	 -30.0	 30.0;
	45	 46	 0.0	 0.021	 0.0	 1397	 1397	 1397	 1.0	 0.0	 1	 -30.0	 30.0;
	62	 61	 0.0	 0.059	 0.0	 498	 498	 498	 0.975	 0.0	 1	 -30.0	 30.0;
	63	 64	 0.0	 0.038	 0.0	 772	 772	 772	 1.017	 0.0	 1	 -30.0	 30.0;
	73	 74	 0.0	 0.0244	 0.0	 1203	 1203	 1203	 1.0	 0.0	 1	 -30.0	 30.0;
	81	 88	 0.0	 0.02	 0.0	 1467	 1467	 1467	 1.0	 0.0	 1	 -30.0	 30.0;
	85	 99	 0.0	 0.048	 0.0	 612	 612	 612	 1.0	 0.0	 1	 -30.0	 30.0;
	86	 102	 0.0	 0.048	 0.0	 612	 612	 612	 1.0	 0.0	 1	 -30.0	 30.0;
	87	 94	 0.0	 0.046	 0.0	 638	 638	 638	 1.015	 0.0	 1	 -30.0	 30.0;
	114	 207	 0.0	 0.149	 0.0	 197	 197	 197	 0.967	 0.0	 1	 -30.0	 30.0;
	116	 124	 0.0052	 0.0174	 0.0	 1616	 1616	 1616	 1.01	 0.0	 1	 -30.0	 30.0;
	121	 115	 0.0	 0.028	 0.0	 1048	 1048	 1048	 1.05	 0.0	 1	 -30.0	 30.0;
	122	 157	 0.0005	 0.0195	 0.0	 1504	 1504	 1504	 1.0	 0.0	 1	 -30.0	 30.0;
	130	 131	 0.0	 0.018	 0.0	 1630	 1630	 1630	 1.0522	 0.0	 1	 -30.0	 30.0;
	130	 150	 0.0	 0.014	 0.0	 2096	 2096	 2096	 1.0522	 0.0	 1	 -30.0	 30.0;
	132	 170	 0.001	 0.0402	 0.0	 730	 730	 730	 1.05	 0.0	 1	 -30.0	 30.0;
	141	 174	 0.0024	 0.0603	 0.0	 487	 487	 487	 0.975	 0.0	 1	 -30.0	 30.0;
	142	 175	 0.0024	 0.0498	 -0.087	 589	 589	 589	 1.0	 0.0	 1	 -30.0	 30.0;
	143	 144	 0.0	 0.0833	 0.0	 353	 353	 353	 1.035	 0.0	 1	 -30.0	 30.0;
	143	 148	 0.0013	 0.0371	 0.0	 791	 791	 791	 0.9565	 0.0	 1	 -30.0	 30.0;
	145	 180	 0.0005	 0.0182	 0.0	 1612	 1612	 1612	 1.0	 0.0	 1	 -30.0	 30.0;
	151	 170	 0.001	 0.0392	 0.0	 749	 749	 749	 1.05	 0.0	 1	 -30.0	 30.0;
	153	 183	 0.0027	 0.0639	 0.0	 459	 459	 459	 1.073	 0.0	 1	 -30.0	 30.0;
	155	 156	 0.0008	 0.0256	 0.0	 1146	 1146	 1146	 1.05	 0.0	 1	 -30.0	 30.0;
	159	 117	 0.0	 0.016	 0.0	 1834	 1834	 1834	 1.0506	 0.0	 1	 -30.0	 30.0;
	160	 124	 0.0012	 0.0396	 0.0	 741	 741	 741	 0.975	 0.0	 1	 -30.0	 30.0;
	163	 137	 0.0013	 0.0384	 -0.057	 764	 764	 764	 0.98	 0.0	 1	 -30.0	 30.0;
	164	 155	 0.0009	 0.0231	 -0.033	 1269	 1269	 1269	 0.956	 0.0	 1	 -30.0	 30.0;
	182	 139	 0.0003	 0.0131	 0.0	 2239	 2239	 2239	 1.05	 0.0	 1	 -30.0	 30.0;
	189	 210	 0.0	 0.252	 0.0	 117	 117	 117	 1.03	 0.0	 1	 -30.0	 30.0;
	193	 196	 0.0	 0.237	 0.0	 124	 124	 124	 1.03	 0.0	 1	 -30.0	 30.0;
	195	 212	 0.0008	 0.0366	 0.0	 802	 802	 802	 0.985	 0.0	 1	 -30.0	 30.0;
	200	 248	 0.0	 0.22	 0.0	 134	 134	 134	 1.0	 0.0	 1	 -30.0	 30.0;
	201	 69	 0.0	 0.098	 0.0	 300	 300	 300	 1.03	 0.0	 1	 -30.0	 30.0;
	202	 211	 0.0	 0.128	 0.0	 230	 230	 230	 1.01	 0.0	 1	 -30.0	 30.0;
	204	 2040	 0.02	 0.204	 -0.012	 144	 144	 144	 1.05	 0.0	 1	 -30.0	 30.0;
	209	 198	 0.026	 0.211	 0.0	 138	 138	 138	 1.03	 0.0	 1	 -30.0	 30.0;
	211	 212	 0.003	 0.0122	 0.0	 2335	 2335	 2335	 1.0	 0.0	 1	 -30.0	 30.0;
	218	 219	 0.001	 0.0354	 -0.01	 829	 829	 829	 0.97	 0.0	 1	 -30.0	 30.0;
	223	 224	 0.0012	 0.0195	 -0.364	 1502	 1502	 1502	 1.0	 0.0	 1	 -30.0	 30.0;
	229	 230	 0.001	 0.0332	 0.0	 884	 884	 884	 1.02	 0.0	 1	 -30.0	 30.0;
	234	 236	 0.0005	 0.016	 0.0	 1833	 1833	 1833	 1.07	 0.0	 1	 -30.0	 30.0;
	238	 239	 0.0005	 0.016	 0.0	 1833	 1833	 1833	 1.02	 0.0	 1	 -30.0	 30.0;
	196	 2040	 0.0001	 0.02	 0.0	 1467	 1467	 1467	 1.0	 -11.4	 1	 -30.0	 30.0;
	119	 1190	 0.001	 0.023	 0.0	 1275	 1275	 1275	 1.0223	 0.0	 1	 -30.0	 30.0;
	120	 1200	 0.0	 0.023	 0.0	 1276	 1276	 1276	 0.9284	 0.0	 1	 -30.0	 30.0;
	7002	 2	 0.001	 0.0146	 0.0	 2005	 2005	 2005	 1.0	 0.0	 1	 -30.0	 30.0;
	7003	 3	 0.0	 0.01054	 0.0	 2783	 2783	 2783	 1.0	 0.0	 1	 -30.0	 30.0;
	7061	 61	 0.0	 0.0238	 0.0	 1233	 1233	 1233	 1.0	 0.0	 1	 -30.0	 30.0;
	7062	 62	 0.0	 0.03214	 0.0	 913	 913	 913	 0.95	 0.0	 1	 -30.0	 30.0;
	7166	 166	 0.0	 0.0154	 0.0	 1905	 1905	 1905	 1.0	 0.0	 1	 -30.0	 30.0;
	7024	 24	 0.0	 0.0289	 0.0	 1015	 1015	 1015	 1.0	 0.0	 1	 -30.0	 30.0;
	7001	 1	 0.0	 0.01953	 0.0	 1502	 1502	 1502	 1.0	 0.0	 1	 -30.0	 30.0;
	7130	 130	 0.0	 0.0193	 0.0	 1520	 1520	 1520	 1.0	 0.0	 1	 -30.0	 30.0;
	7011	 11	 0.0	 0.01923	 0.0	 1526	 1526	 1526	 1.0	 0.0	 1	 -30.0	 30.0;
	7023	 23	 0.0	 0.023	 0.0	 1276	 1276	 1276	 1.0	 0.0	 1	 -30.0	 30.0;
	7049	 49	 0.0	 0.0124	 0.0	 2366	 2366	 2366	 1.0	 0.0	 1	 -30.0	 30.0;
	7139	 139	 0.0	 0.0167	 0.0	 1757	 1757	 1757	 1.0	 0.0	 1	 -30.0	 30.0;
	7012	 12	 0.0	 0.0312	 0.0	 941	 941	 941	 1.0	 0.0	 1	 -30.0	 30.0;
	7017	 17	 0.0	 0.01654	 0.0	 1774	 1774	 1774	 0.942	 0.0	 1	 -30.0	 30.0;
	7039	 39	 0.0	 0.03159	 0.0	 929	 929	 929	 0.965	 0.0	 1	 -30.0	 30.0;
	7057	 57	 0.0	 0.05347	 0.0	 549	 549	 549	 0.95	 0.0	 1	 -30.0	 30.0;
	7044	 44	 0.0	 0.18181	 0.0	 162	 162	 162	 0.942	 0.0	 1	 -30.0	 30.0;
	7055	 55	 0.0	 0.19607	 0.0	 150	 150	 150	 0.942	 0.0	 1	 -30.0	 30.0;
	7071	 71	 0.0	 0.06896	 0.0	 426	 426	 426	 0.9565	 0.0	 1	 -30.0	 30.0;
];